4
Lattice="2.5708573486418986 0.0 1.5741961115393762e-16 -1.2854286743209502 2.226427773429791 1.5741961115393762e-16 0.0 0.0 25.0" Properties=species:S:1:pos:R:3 name=Cu_clean pbc="T T T"
Cu       1.28542868       0.74214259       3.04954812
Cu       0.00000001       0.00000000       5.14864435
Cu       0.00000001       1.48428519       7.24774059
Cu       1.28542868       0.74214259       9.34683682
